                                   MODFLOW 6
                U.S. GEOLOGICAL SURVEY MODULAR HYDROLOGIC MODEL
                          GROUNDWATER FLOW MODEL (GWF)
                            VERSION 6.3.0 03/04/2022

   MODFLOW 6 compiled Mar 07 2022 16:14:29 with Intel(R) Fortran Intel(R) 64
   Compiler Classic for applications running on Intel(R) 64, Version 2021.5.0
                             Build 20211109_000000

This software has been approved for release by the U.S. Geological 
Survey (USGS). Although the software has been subjected to rigorous 
review, the USGS reserves the right to update the software as needed 
pursuant to further analysis and review. No warranty, expressed or 
implied, is made by the USGS or the U.S. Government as to the 
functionality of the software and related material nor shall the 
fact of release constitute any such warranty. Furthermore, the 
software is released on condition that neither the USGS nor the U.S. 
Government shall be held liable for any damages resulting from its 
authorized or unauthorized use. Also refer to the USGS Water 
Resources Software User Rights Notice for complete use, copyright, 
and distribution information.


As a work of the United States Government, this USGS product is 
in the public domain within the United States. You can copy, 
modify, distribute, and perform the work, even for commercial 
purposes, all without asking permission. Additionally, USGS 
waives copyright and related rights in the work worldwide 
through CC0 1.0 Universal Public Domain Dedication 
(https://creativecommons.org/publicdomain/zero/1.0/).

The following GNU Lesser General Public License (LGPL) libraries
are used in this USGS product:

    SPARSKIT version 2.0
      ilut, luson, and qsplit 
      (https://www-users.cse.umn.edu/~saad/software/SPARSKIT/)

    RCM - Reverse Cuthill McKee Ordering
      (https://people.math.sc.edu/Burkardt/f_src/rcm/rcm.html)

    BLAS - Basic Linear Algebra Subprograms Level 1
      (https://people.math.sc.edu/Burkardt/f_src/blas1_d/blas1_d.html)

    SPARSEKIT - Sparse Matrix Utility Package
      amux, dperm, dvperm, rperm, and cperm
      (https://people.sc.fsu.edu/~jburkardt/f77_src/sparsekit/sparsekit.html)

The following BSD-3 License libraries are used in this USGS product:

    Modern Fortran DAG Library
      Copyright (c) 2018, Jacob Williams
      All rights reserved.
      (https://github.com/jacobwilliams/daglib)

MODFLOW 6 compiler options: /O2 /heap-arrays:0 /fpe:0 /traceback /nologo /fpp
/c /module:win64\mod_temp\ /object:win64\obj_temp\

System command used to initiate simulation:
C:\Users\esrag\Documents\GitHub\pleasant-lake-flopy-example\bin\win\mf6.exe

MODFLOW was compiled using uniform precision.

Real Variables
  KIND: 8
  TINY (smallest non-zero value):    2.225074-308
  HUGE (largest value):    1.797693+308
  PRECISION: 15
  BIT SIZE: 64

Integer Variables
  KIND: 4
  HUGE (largest value): 2147483647
  BIT SIZE: 32

Long Integer Variables
  KIND: 8
  HUGE (largest value): 9223372036854775807
  BIT SIZE: 64

Logical Variables
  KIND: 4
  BIT SIZE: 32
 

 OPENED pleasant.oc
 FILE TYPE:OC6                    UNIT 1005   STATUS:OLD                 
 FORMAT:FORMATTED              ACCESS:SEQUENTIAL          
 ACTION:READ                


 OPENED pleasant.dis
 FILE TYPE:DIS6                   UNIT 1006   STATUS:OLD                 
 FORMAT:FORMATTED              ACCESS:SEQUENTIAL          
 ACTION:READ                


 OPENED pleasant.npf
 FILE TYPE:NPF6                   UNIT 1007   STATUS:OLD                 
 FORMAT:FORMATTED              ACCESS:SEQUENTIAL          
 ACTION:READ                


 OPENED pleasant.ic
 FILE TYPE:IC6                    UNIT 1008   STATUS:OLD                 
 FORMAT:FORMATTED              ACCESS:SEQUENTIAL          
 ACTION:READ                


 OPENED pleasant.chd
 FILE TYPE:CHD6                   UNIT 1009   STATUS:OLD                 
 FORMAT:FORMATTED              ACCESS:SEQUENTIAL          
 ACTION:READ                


 OPENED pleasant.rcha
 FILE TYPE:RCH6                   UNIT 1010   STATUS:OLD                 
 FORMAT:FORMATTED              ACCESS:SEQUENTIAL          
 ACTION:READ                


 OPENED pleasant.lak
 FILE TYPE:LAK6                   UNIT 1011   STATUS:OLD                 
 FORMAT:FORMATTED              ACCESS:SEQUENTIAL          
 ACTION:READ                


 OPENED pleasant.sfr
 FILE TYPE:SFR6                   UNIT 1012   STATUS:OLD                 
 FORMAT:FORMATTED              ACCESS:SEQUENTIAL          
 ACTION:READ                

 NAMEFILE OPTIONS:
    FLOWS WILL BE SAVED TO BUDGET FILE SPECIFIED IN OUTPUT CONTROL

 DIS -- STRUCTURED GRID DISCRETIZATION PACKAGE, VERSION 2 : 3/27/2014 - INPUT READ FROM UNIT 1006


 # File generated by Flopy version 3.3.7 on 06/20/2023 at 13:15:06.
 PROCESSING DISCRETIZATION OPTIONS
 END OF DISCRETIZATION OPTIONS
 MODEL LENGTH UNIT IS UNDEFINED
 PROCESSING DISCRETIZATION DIMENSIONS
    NLAY =       3
    NROW =      60
    NCOL =      70
 END OF DISCRETIZATION DIMENSIONS
 PROCESSING GRIDDATA

                     DELR =   40.00000    

                     DELC =   40.00000    

 OPENED data/top.dat
 FILE TYPE:OPEN/CLOSE   UNIT 1014   STATUS:OLD                 
 FORMAT:FORMATTED              ACCESS:SEQUENTIAL          
 ACTION:READ                


 OPENED data/botm_000.dat
 FILE TYPE:OPEN/CLOSE   UNIT 1015   STATUS:OLD                 
 FORMAT:FORMATTED              ACCESS:SEQUENTIAL          
 ACTION:READ                


 OPENED data/botm_001.dat
 FILE TYPE:OPEN/CLOSE   UNIT 1016   STATUS:OLD                 
 FORMAT:FORMATTED              ACCESS:SEQUENTIAL          
 ACTION:READ                


 OPENED data/botm_002.dat
 FILE TYPE:OPEN/CLOSE   UNIT 1017   STATUS:OLD                 
 FORMAT:FORMATTED              ACCESS:SEQUENTIAL          
 ACTION:READ                


                  IDOMAIN = 1
 END PROCESSING GRIDDATA

 NPF -- NODE PROPERTY FLOW PACKAGE, VERSION 1, 3/30/2015 INPUT READ FROM UNIT 1007


 # File generated by Flopy version 3.3.7 on 06/20/2023 at 13:15:06.
 PROCESSING NPF OPTIONS
 END OF NPF OPTIONS

 RCH   -- RCH PACKAGE, VERSION 8, 2/22/2014 INPUT READ FROM UNIT 1010
 # File generated by Flopy version 3.3.7 on 06/20/2023 at 13:15:06.

 PROCESSING RCH OPTIONS
    RECHARGE INPUT WILL BE READ AS ARRAY(S).
 END OF RCHA OPTIONS

 CHD   -- CHD PACKAGE, VERSION 8, 2/22/2014 INPUT READ FROM UNIT 1009
 # File generated by Flopy version 3.3.7 on 06/20/2023 at 13:15:06.

 PROCESSING CHD OPTIONS
 END OF CHD OPTIONS

 PROCESSING CHD DIMENSIONS
    MAXBOUND =     572
 END OF CHD DIMENSIONS

 SFR   -- SFR PACKAGE, VERSION 8, 2/22/2014 INPUT READ FROM UNIT 1012
 # File generated by Flopy version 3.3.7 on 06/20/2023 at 13:15:06.

 PROCESSING SFR OPTIONS

 OPENED pleasant.sfr.stage.bin
 FILE TYPE:DATA(BINARY)   UNIT 1018   STATUS:REPLACE             
 FORMAT:UNFORMATTED            ACCESS:STREAM              
 ACTION:READWRITE           

    SFR  STAGE  WILL BE SAVED TO FILE: pleasant.sfr.stage.bin
    OPENED ON UNIT: 1018

 OPENED pleasant.sfr.cbc
 FILE TYPE:DATA(BINARY)   UNIT 1019   STATUS:REPLACE             
 FORMAT:UNFORMATTED            ACCESS:STREAM              
 ACTION:READWRITE           

    SFR  BUDGET  WILL BE SAVED TO FILE: pleasant.sfr.cbc
    OPENED ON UNIT: 1019
    UNIT CONVERSION VALUE (86400.00000000000) SPECIFIED.
 END OF SFR OPTIONS

 PROCESSING SFR DIMENSIONS
    NREACHES = 26
 END OF SFR DIMENSIONS

 PROCESSING SFR PACKAGEDATA
 END OF SFR PACKAGEDATA

 PROCESSING SFR CONNECTIONDATA
 END OF SFR CONNECTIONDATA

 LAK   -- LAK PACKAGE, VERSION 8, 2/22/2014 INPUT READ FROM UNIT 1011
 # File generated by Flopy version 3.3.7 on 06/20/2023 at 13:15:06.

 PROCESSING LAK OPTIONS
    LAK BOUNDARIES HAVE NAMES IN LAST COLUMN.
    LAKE SURFDEP VALUE (  0.1000000    ) SPECIFIED.
 END OF LAK OPTIONS

 PROCESSING LAK DIMENSIONS
    NLAKES =       1
 END OF LAK DIMENSIONS

 PROCESSING LAK PACKAGEDATA
 END OF LAK PACKAGEDATA


    MAXBOUND =     345

 OPENED data/lake_cn.dat
 FILE TYPE:OPEN/CLOSE   UNIT 1020   STATUS:OLD                 
 FORMAT:FORMATTED              ACCESS:SEQUENTIAL          
 ACTION:READ                


 PROCESSING LAK LAKE_CONNECTIONS
 #lakeno iconn k i j claktype bedleak belev telev connlen connwidth
 END OF LAK CONNECTIONDATA

 IC -- INITIAL CONDITIONS PACKAGE, VERSION 8, 3/28/2015 INPUT READ FROM UNIT 1008
 # File generated by Flopy version 3.3.7 on 06/20/2023 at 13:15:06.
 PROCESSING GRIDDATA

 OPENED data/top.dat
 FILE TYPE:OPEN/CLOSE   UNIT 1021   STATUS:OLD                 
 FORMAT:FORMATTED              ACCESS:SEQUENTIAL          
 ACTION:READ                


 OPENED data/top.dat
 FILE TYPE:OPEN/CLOSE   UNIT 1022   STATUS:OLD                 
 FORMAT:FORMATTED              ACCESS:SEQUENTIAL          
 ACTION:READ                


 OPENED data/top.dat
 FILE TYPE:OPEN/CLOSE   UNIT 1023   STATUS:OLD                 
 FORMAT:FORMATTED              ACCESS:SEQUENTIAL          
 ACTION:READ                

 END PROCESSING GRIDDATA
 PROCESSING GRIDDATA

                ICELLTYPE = 1

 OPENED data/k_000.dat
 FILE TYPE:OPEN/CLOSE   UNIT 1024   STATUS:OLD                 
 FORMAT:FORMATTED              ACCESS:SEQUENTIAL          
 ACTION:READ                


 OPENED data/k_001.dat
 FILE TYPE:OPEN/CLOSE   UNIT 1025   STATUS:OLD                 
 FORMAT:FORMATTED              ACCESS:SEQUENTIAL          
 ACTION:READ                


 OPENED data/k_002.dat
 FILE TYPE:OPEN/CLOSE   UNIT 1026   STATUS:OLD                 
 FORMAT:FORMATTED              ACCESS:SEQUENTIAL          
 ACTION:READ                


 OPENED data/k33_000.dat
 FILE TYPE:OPEN/CLOSE   UNIT 1027   STATUS:OLD                 
 FORMAT:FORMATTED              ACCESS:SEQUENTIAL          
 ACTION:READ                


 OPENED data/k33_001.dat
 FILE TYPE:OPEN/CLOSE   UNIT 1028   STATUS:OLD                 
 FORMAT:FORMATTED              ACCESS:SEQUENTIAL          
 ACTION:READ                


 OPENED data/k33_002.dat
 FILE TYPE:OPEN/CLOSE   UNIT 1029   STATUS:OLD                 
 FORMAT:FORMATTED              ACCESS:SEQUENTIAL          
 ACTION:READ                

 K22 not provided.  Assuming K22 = K.
 END PROCESSING GRIDDATA
    BINARY GRID INFORMATION WILL BE WRITTEN TO:
      UNIT NUMBER: 1030
      FILE NAME: C:\Users\esrag\Documents\GitHub\pleasant-lake-flopy-example\pleasant.dis.grb

 OPENED C:\Users\esrag\Documents\GitHub\pleasant-lake-flopy-example\pleasant.dis.grb
 FILE TYPE:DATA(BINARY)   UNIT 1030   STATUS:REPLACE             
 FORMAT:UNFORMATTED            ACCESS:STREAM              
 ACTION:READWRITE           

      THE LAST TIME STEP WILL BE PRINTED
      THE LAST TIME STEP WILL BE PRINTED
 # File generated by Flopy version 3.3.7 on 06/20/2023 at 13:15:06.

 PROCESSING OC OPTIONS

    BUDGET INFORMATION WILL BE WRITTEN TO:
      UNIT NUMBER: 1031
      FILE NAME: pleasant.cbc

 OPENED pleasant.cbc
 FILE TYPE:DATA(BINARY)   UNIT 1031   STATUS:REPLACE             
 FORMAT:UNFORMATTED            ACCESS:STREAM              
 ACTION:READWRITE           

    HEAD INFORMATION WILL BE WRITTEN TO:
      UNIT NUMBER: 1032
      FILE NAME: pleasant.hds

 OPENED pleasant.hds
 FILE TYPE:DATA(BINARY)   UNIT 1032   STATUS:REPLACE             
 FORMAT:UNFORMATTED            ACCESS:STREAM              
 ACTION:READWRITE           

 END OF OC OPTIONS

start timestep kper="1" kstp="1" mode="normal"


 BEGIN READING OUTPUT CONTROL FOR STRESS PERIOD 1
      ALL TIME STEPS WILL BE SAVED
      ALL TIME STEPS WILL BE SAVED

 END READING OUTPUT CONTROL FOR STRESS PERIOD 1

 OPENED data/irch.dat
 FILE TYPE:OPEN/CLOSE   UNIT 1033   STATUS:OLD                 
 FORMAT:FORMATTED              ACCESS:SEQUENTIAL          
 ACTION:READ                


 OPENED data/rch_000.dat
 FILE TYPE:OPEN/CLOSE   UNIT 1034   STATUS:OLD                 
 FORMAT:FORMATTED              ACCESS:SEQUENTIAL          
 ACTION:READ                


 OPENED data/chd_000.dat
 FILE TYPE:OPEN/CLOSE   UNIT 1035   STATUS:OLD                 
 FORMAT:FORMATTED              ACCESS:SEQUENTIAL          
 ACTION:READ                

 #k i j head boundname

 REUSING SFRS FROM LAST STRESS PERIOD

 CELL CONVERSIONS FOR ITER.=2  STEP=1  PERIOD=1   (NODE or LRC)
     DRY           (1,11,28) DRY           (1,11,29) DRY           (1,11,30) DRY           (1,11,31) DRY           (1,11,32)
     DRY           (1,12,26) DRY           (1,12,27) DRY           (1,12,28) DRY           (1,12,29) DRY           (1,12,30)
     DRY           (1,12,31) DRY           (1,12,32) DRY           (1,12,33) DRY           (1,12,34) DRY           (1,13,24)
     DRY           (1,13,25) DRY           (1,13,26) DRY           (1,13,27) DRY           (1,13,28) DRY           (1,13,29)
     DRY           (1,13,30) DRY           (1,13,31) DRY           (1,13,32) DRY           (1,13,33) DRY           (1,13,34)
     DRY           (1,14,25) DRY           (1,14,26) DRY           (1,14,27) DRY           (1,14,28) DRY           (1,14,29)
     DRY           (1,14,30) DRY           (1,14,31) DRY           (1,14,32) DRY           (1,14,33) DRY           (1,14,34)
     DRY           (1,15,26) DRY           (1,15,27) DRY           (1,15,28) DRY           (1,15,29) DRY           (1,15,30)
     DRY           (1,15,31) DRY           (1,15,32) DRY           (1,15,33) DRY           (1,15,34) DRY           (1,16,27)
     DRY           (1,16,28) DRY           (1,16,29) DRY           (1,16,30) DRY           (1,16,31) DRY           (1,16,32)
     DRY           (1,16,33) DRY           (1,17,28) DRY           (1,17,29) DRY           (1,17,30) DRY           (1,17,31)
     DRY           (1,17,32) DRY           (1,17,33) DRY           (1,18,33) DRY           (1,48,51) DRY           (1,48,52)
     DRY           (1,48,53) DRY           (1,48,54) DRY           (1,48,55) DRY           (1,49,51) DRY           (1,49,52)
     DRY           (1,49,53) DRY           (1,49,54) DRY           (1,49,55) DRY           (1,49,56) DRY           (1,49,57)
     DRY           (1,50,51) DRY           (1,50,52) DRY           (1,50,53) DRY           (1,50,54) DRY           (1,50,55)
     DRY           (1,50,56) DRY           (1,50,57) DRY           (1,50,58) DRY           (1,50,59) DRY           (1,50,60)
     DRY           (1,51,50) DRY           (1,51,51) DRY           (1,51,52) DRY           (1,51,53) DRY           (1,51,54)
     DRY           (1,51,55) DRY           (1,51,56) DRY           (1,51,57) DRY           (1,51,58) DRY           (1,51,59)
     DRY           (1,51,60) DRY           (1,51,61) DRY           (1,51,62) DRY           (1,51,63) DRY           (1,52,51)
     DRY           (1,52,52) DRY           (1,52,53) DRY           (1,52,54) DRY           (1,52,55) DRY           (1,52,56)
     DRY           (1,52,57) DRY           (1,52,58) DRY           (1,52,59) DRY           (1,52,60) DRY           (1,52,61)
     DRY           (1,52,62) DRY           (1,52,63) DRY           (1,52,64) DRY           (1,52,65) DRY           (1,52,66)
     DRY           (1,53,52) DRY           (1,53,53) DRY           (1,53,54) DRY           (1,53,55) DRY           (1,53,56)
     DRY           (1,53,57) DRY           (1,53,58) DRY           (1,53,59) DRY           (1,53,60) DRY           (1,53,61)
     DRY           (1,53,62) DRY           (1,53,63) DRY           (1,53,64) DRY           (1,53,65) DRY           (1,53,66)
     DRY           (1,53,67) DRY           (1,53,68) DRY           (1,54,55) DRY           (1,54,56) DRY           (1,54,57)
     DRY           (1,54,58) DRY           (1,54,59) DRY           (1,54,60) DRY           (1,54,61) DRY           (1,54,62)
     DRY           (1,54,63) DRY           (1,54,64) DRY           (1,54,65) DRY           (1,54,66) DRY           (1,54,67)
     DRY           (1,54,68) DRY           (1,54,69) DRY           (1,55,56) DRY           (1,55,57) DRY           (1,55,58)
     DRY           (1,55,59) DRY           (1,55,60) DRY           (1,55,61) DRY           (1,55,62) DRY           (1,55,63)
     DRY           (1,55,64) DRY           (1,55,65) DRY           (1,55,66) DRY           (1,55,67) DRY           (1,55,68)
     DRY           (1,55,69) DRY           (1,56,57) DRY           (1,56,58) DRY           (1,56,59) DRY           (1,56,60)
     DRY           (1,56,61) DRY           (1,56,62) DRY           (1,56,63) DRY           (1,56,64) DRY           (1,56,65)
     DRY           (1,56,66) DRY           (1,56,67) DRY           (1,56,68) DRY           (1,56,69) DRY           (1,56,70)
     DRY           (1,57,60) DRY           (1,57,61) DRY           (1,57,62) DRY           (1,57,63) DRY           (1,57,64)
     DRY           (1,57,65) DRY           (1,57,66) DRY           (1,57,67) DRY           (1,57,68) DRY           (1,57,69)
     DRY           (1,57,70) DRY           (1,58,59) DRY           (1,58,60) DRY           (1,58,61) DRY           (1,58,62)
     DRY           (1,58,63) DRY           (1,58,64) DRY           (1,58,65) DRY           (1,58,66) DRY           (1,58,67)
     DRY           (1,58,68) DRY           (1,58,69) DRY           (1,58,70) DRY           (1,59,60) DRY           (1,59,61)
     DRY           (1,59,62) DRY           (1,59,63) DRY           (1,59,64) DRY           (1,59,65) DRY           (1,59,66)
     DRY           (1,59,67) DRY           (1,59,68) DRY           (1,59,69) DRY           (1,59,70) DRY           (1,60,61)
     DRY           (1,60,62) DRY           (1,60,63) DRY           (1,60,64) DRY           (1,60,65) DRY           (1,60,66)
     DRY           (1,60,67) DRY           (1,60,68) DRY           (1,60,69) DRY           (1,60,70) DRY           (2,54,63)
     DRY           (2,54,64) DRY           (2,55,62) DRY           (2,55,63) DRY           (2,55,64) DRY           (2,55,65)
     DRY           (2,56,62) DRY           (2,56,63) DRY           (2,56,64) DRY           (2,56,65) DRY           (2,56,66)
     DRY           (2,56,67) DRY           (2,57,61) DRY           (2,57,62) DRY           (2,57,63) DRY           (2,57,64)
     DRY           (2,57,65) DRY           (2,57,66) DRY           (2,57,67) DRY           (2,57,68) DRY           (2,58,61)
     DRY           (2,58,62) DRY           (2,58,63) DRY           (2,58,64) DRY           (2,58,65) DRY           (2,58,66)
     DRY           (2,58,67) DRY           (2,58,68) DRY           (2,59,62) DRY           (2,59,63) DRY           (2,59,64)
     DRY           (2,59,65) DRY           (2,59,66) DRY           (2,59,67) DRY           (2,59,68) DRY           (2,59,69)
     DRY           (2,60,62) DRY           (2,60,63) DRY           (2,60,64) DRY           (2,60,65) DRY           (2,60,67)
     DRY           (2,60,68) DRY           (2,60,69)

 CELL CONVERSIONS FOR ITER.=3  STEP=1  PERIOD=1   (NODE or LRC)
     DRY           (1,13,35) DRY           (1,16,34) DRY           (1,17,34) DRY           (1,18,29) DRY           (1,18,30)
     DRY           (1,18,31) DRY           (1,18,32) DRY           (1,19,32) DRY           (1,53,69) DRY           (1,55,70)
     DRY           (2,54,65) DRY           (2,55,66) DRY           (2,55,67) DRY           (2,56,68) DRY           (2,57,69)
     DRY           (2,58,69) DRY           (2,60,70)

 CELL CONVERSIONS FOR ITER.=4  STEP=1  PERIOD=1   (NODE or LRC)
     DRY           (2,53,63)
 UBDSV1 SAVING     FLOW-JA-FACE ON UNIT   1031 AT TIME STEP      1, STRESS PERIOD      1
 UBDSV06 SAVING             RCHA IN MODEL PLEASANT         PACKAGE PLEASANT        CONNECTED TO MODEL PLEASANT         PACKAGE RCHA_0           ON UNIT   1031 AT TIME STEP      1, STRESS PERIOD      1
 UBDSV06 SAVING              CHD IN MODEL PLEASANT         PACKAGE PLEASANT        CONNECTED TO MODEL PLEASANT         PACKAGE CHD_0            ON UNIT   1031 AT TIME STEP      1, STRESS PERIOD      1
 UBDSV06 SAVING              SFR IN MODEL PLEASANT         PACKAGE PLEASANT        CONNECTED TO MODEL PLEASANT         PACKAGE SFR_0            ON UNIT   1031 AT TIME STEP      1, STRESS PERIOD      1
 UBDSV06 SAVING              LAK IN MODEL PLEASANT         PACKAGE PLEASANT        CONNECTED TO MODEL PLEASANT         PACKAGE LAK_0            ON UNIT   1031 AT TIME STEP      1, STRESS PERIOD      1
 UBDSV06 SAVING     FLOW-JA-FACE IN MODEL PLEASANT         PACKAGE SFR_0           CONNECTED TO MODEL PLEASANT         PACKAGE SFR_0            ON UNIT   1019 AT TIME STEP      1, STRESS PERIOD      1
 UBDSV06 SAVING              GWF IN MODEL PLEASANT         PACKAGE SFR_0           CONNECTED TO MODEL PLEASANT         PACKAGE PLEASANT         ON UNIT   1019 AT TIME STEP      1, STRESS PERIOD      1
 UBDSV06 SAVING         RAINFALL IN MODEL PLEASANT         PACKAGE SFR_0           CONNECTED TO MODEL PLEASANT         PACKAGE SFR_0            ON UNIT   1019 AT TIME STEP      1, STRESS PERIOD      1
 UBDSV06 SAVING      EVAPORATION IN MODEL PLEASANT         PACKAGE SFR_0           CONNECTED TO MODEL PLEASANT         PACKAGE SFR_0            ON UNIT   1019 AT TIME STEP      1, STRESS PERIOD      1
 UBDSV06 SAVING           RUNOFF IN MODEL PLEASANT         PACKAGE SFR_0           CONNECTED TO MODEL PLEASANT         PACKAGE SFR_0            ON UNIT   1019 AT TIME STEP      1, STRESS PERIOD      1
 UBDSV06 SAVING       EXT-INFLOW IN MODEL PLEASANT         PACKAGE SFR_0           CONNECTED TO MODEL PLEASANT         PACKAGE SFR_0            ON UNIT   1019 AT TIME STEP      1, STRESS PERIOD      1
 UBDSV06 SAVING      EXT-OUTFLOW IN MODEL PLEASANT         PACKAGE SFR_0           CONNECTED TO MODEL PLEASANT         PACKAGE SFR_0            ON UNIT   1019 AT TIME STEP      1, STRESS PERIOD      1
 UBDSV06 SAVING          STORAGE IN MODEL PLEASANT         PACKAGE SFR_0           CONNECTED TO MODEL PLEASANT         PACKAGE SFR_0            ON UNIT   1019 AT TIME STEP      1, STRESS PERIOD      1

 HEAD WILL BE SAVED ON UNIT 1032 AT END OF TIME STEP    1, STRESS PERIOD    1


  SFR_0 BUDGET FOR ENTIRE MODEL AT END OF TIME STEP    1, STRESS PERIOD   1
  ------------------------------------------------------------------------------

     CUMULATIVE SFR_0      L**3       RATES FOR THIS TIME STEP      L**3/T
     ------------------                 ------------------------

           IN:                                      IN:
           ---                                      ---
                 GWF =       30275.3082                   GWF =       30275.3082
            RAINFALL =           0.0000              RAINFALL =           0.0000
         EVAPORATION =           0.0000           EVAPORATION =           0.0000
              RUNOFF =           0.0000                RUNOFF =           0.0000
          EXT-INFLOW =           0.0000            EXT-INFLOW =           0.0000
         EXT-OUTFLOW =           0.0000           EXT-OUTFLOW =           0.0000
             STORAGE =           0.0000               STORAGE =           0.0000

            TOTAL IN =       30275.3082              TOTAL IN =       30275.3082

          OUT:                                     OUT:
          ----                                     ----
                 GWF =        2494.0560                   GWF =        2494.0560
            RAINFALL =           0.0000              RAINFALL =           0.0000
         EVAPORATION =           0.0000           EVAPORATION =           0.0000
              RUNOFF =           0.0000                RUNOFF =           0.0000
          EXT-INFLOW =           0.0000            EXT-INFLOW =           0.0000
         EXT-OUTFLOW =       27781.2522           EXT-OUTFLOW =       27781.2522
             STORAGE =           0.0000               STORAGE =           0.0000

           TOTAL OUT =       30275.3082             TOTAL OUT =       30275.3082

            IN - OUT =           0.0000              IN - OUT =           0.0000

 PERCENT DISCREPANCY =           0.00     PERCENT DISCREPANCY =           0.00



  LAK_0 BUDGET FOR ENTIRE MODEL AT END OF TIME STEP    1, STRESS PERIOD   1
  ------------------------------------------------------------------------------

     CUMULATIVE LAK_0      L**3       RATES FOR THIS TIME STEP      L**3/T
     ------------------                 ------------------------

           IN:                                      IN:
           ---                                      ---
                 GWF =        3299.9991                   GWF =        3299.9991
            RAINFALL =        1045.5642              RAINFALL =        1045.5642
         EVAPORATION =           0.0000           EVAPORATION =           0.0000
              RUNOFF =           0.0000                RUNOFF =           0.0000
          EXT-INFLOW =           0.0000            EXT-INFLOW =           0.0000
          WITHDRAWAL =           0.0000            WITHDRAWAL =           0.0000
         EXT-OUTFLOW =           0.0000           EXT-OUTFLOW =           0.0000
             STORAGE =           0.0000               STORAGE =           0.0000
            CONSTANT =           0.0000              CONSTANT =           0.0000

            TOTAL IN =        4345.5633              TOTAL IN =        4345.5633

          OUT:                                     OUT:
          ----                                     ----
                 GWF =        3983.3123                   GWF =        3983.3123
            RAINFALL =           0.0000              RAINFALL =           0.0000
         EVAPORATION =         357.6930           EVAPORATION =         357.6930
              RUNOFF =           0.0000                RUNOFF =           0.0000
          EXT-INFLOW =           0.0000            EXT-INFLOW =           0.0000
          WITHDRAWAL =           0.0000            WITHDRAWAL =           0.0000
         EXT-OUTFLOW =           0.0000           EXT-OUTFLOW =           0.0000
             STORAGE =           0.0000               STORAGE =           0.0000
            CONSTANT =           0.0000              CONSTANT =           0.0000

           TOTAL OUT =        4341.0053             TOTAL OUT =        4341.0053

            IN - OUT =           4.5580              IN - OUT =           4.5580

 PERCENT DISCREPANCY =           0.10     PERCENT DISCREPANCY =           0.10



  VOLUME BUDGET FOR ENTIRE MODEL AT END OF TIME STEP    1, STRESS PERIOD   1
  ---------------------------------------------------------------------------------------------------

     CUMULATIVE VOLUME      L**3       RATES FOR THIS TIME STEP      L**3/T          PACKAGE NAME    
     ------------------                 ------------------------                     ----------------

           IN:                                      IN:
           ---                                      ---
                RCHA =        4749.7228                  RCHA =        4749.7228     RCHA_0                           
                 CHD =       49684.2981                   CHD =       49684.2981     CHD_0                            
                 SFR =        2493.9146                   SFR =        2493.9146     SFR_0                            
                 LAK =        3983.3123                   LAK =        3983.3123     LAK_0                            

            TOTAL IN =       60911.2477              TOTAL IN =       60911.2477

          OUT:                                     OUT:
          ----                                     ----
                RCHA =           0.0000                  RCHA =           0.0000     RCHA_0                           
                 CHD =       27329.0089                   CHD =       27329.0089     CHD_0                            
                 SFR =       30276.7061                   SFR =       30276.7061     SFR_0                            
                 LAK =        3299.9991                   LAK =        3299.9991     LAK_0                            

           TOTAL OUT =       60905.7141             TOTAL OUT =       60905.7141

            IN - OUT =           5.5336              IN - OUT =           5.5336

 PERCENT DISCREPANCY =           0.01     PERCENT DISCREPANCY =           0.01




         TIME SUMMARY AT END OF TIME STEP    1 IN STRESS PERIOD    1
                    SECONDS     MINUTES      HOURS       DAYS        YEARS
                    -----------------------------------------------------------
   TIME STEP LENGTH  86400.      1440.0      24.000      1.0000     2.73785E-03
 STRESS PERIOD TIME  86400.      1440.0      24.000      1.0000     2.73785E-03
         TOTAL TIME  86400.      1440.0      24.000      1.0000     2.73785E-03


end timestep

